A71EV2A-x0450_A_201_1_A71EV2A-x0911+A+147+1__LIG
     RDKit          3D

 13 13  0  0  0  0  0  0  0  0999 V2000
    8.4650   14.3150   25.4980 Br  0  0  0  0  0  0  0  0  0  0  0  0
    8.2600   12.4470   25.2580 C   0  0  0  0  0  0  0  0  0  0  0  0
    9.1550   11.7900   24.4260 C   0  0  0  0  0  0  0  0  0  0  0  0
    8.9950   10.4350   24.2560 C   0  0  0  0  0  0  0  0  0  0  0  0
    9.8900    9.7610   23.4820 F   0  0  0  0  0  0  0  0  0  0  0  0
    7.9980    9.7240   24.8530 C   0  0  0  0  0  0  0  0  0  0  0  0
    7.1130   10.3950   25.6780 C   0  0  0  0  0  0  0  0  0  0  0  0
    7.2310   11.7650   25.9030 C   0  0  0  0  0  0  0  0  0  0  0  0
    6.3110   12.4260   26.8920 C   0  0  0  0  0  0  0  0  0  0  0  0
    6.4140   12.1210   28.0670 O   0  0  0  0  0  0  0  0  0  0  0  0
    5.4180   13.3310   26.4570 N   0  0  0  0  0  0  0  0  0  0  0  0
    4.5050   13.9700   27.4080 C   0  0  0  0  0  0  0  0  0  0  0  0
    5.2590   13.8030   25.0810 C   0  0  0  0  0  0  0  0  0  0  0  0
 13 11  1  0
 12 11  1  0
 11  9  1  0
 10  9  2  0
  9  8  1  0
  8  7  2  0
  7  6  1  0
  6  4  2  0
  5  4  1  0
  4  3  1  0
  3  2  2  0
  8  2  1  0
  2  1  1  0
M  END
$$$$
A71EV2A-x0451_A_201_1_A71EV2A-x0911+A+147+1__LIG
     RDKit          3D

 14 15  0  0  0  0  0  0  0  0999 V2000
   10.5800   14.1140   24.6010 O   0  0  0  0  0  0  0  0  0  0  0  0
   10.7620   13.1860   23.8320 C   0  0  0  0  0  0  0  0  0  0  0  0
   11.7610   13.1720   22.9560 N   0  0  0  0  0  0  0  0  0  0  0  0
   12.1050   14.3360   22.1600 C   0  0  0  0  0  0  0  0  0  0  0  0
    9.8950   11.9830   23.8690 C   0  0  0  0  0  0  0  0  0  0  0  0
    8.6880   11.7750   24.6420 C   0  0  0  0  0  0  0  0  0  0  0  0
    8.2420   10.4780   24.3480 C   0  0  0  0  0  0  0  0  0  0  0  0
    9.1190    9.9240   23.4400 N   0  0  0  0  0  0  0  0  0  0  0  0
    9.0080    8.5980   22.8510 C   0  0  0  0  0  0  0  0  0  0  0  0
   10.1020   10.8310   23.1690 C   0  0  0  0  0  0  0  0  0  0  0  0
    7.9540   12.5500   25.5390 C   0  0  0  0  0  0  0  0  0  0  0  0
    6.8040   12.0280   26.1160 C   0  0  0  0  0  0  0  0  0  0  0  0
    6.3840   10.7400   25.8200 C   0  0  0  0  0  0  0  0  0  0  0  0
    7.1010    9.9460   24.9350 C   0  0  0  0  0  0  0  0  0  0  0  0
  4  3  1  0
  3  2  1  0
  2  1  2  0
  5  2  1  0
  5 10  2  0
 10  8  1  0
  9  8  1  0
  8  7  1  0
  7 14  2  0
 14 13  1  0
 13 12  2  0
 12 11  1  0
 11  6  2  0
  6  5  1  0
  7  6  1  0
M  END
$$$$
A71EV2A-x0473_A_147_1_A71EV2A-x0911+A+147+1__LIG
     RDKit          3D

 15 16  0  0  0  0  0  0  0  0999 V2000
   -0.5550   12.8320   20.4460 O   0  0  0  0  0  0  0  0  0  0  0  0
    0.5500   13.4940   19.8590 S   0  0  0  0  0  0  0  0  0  0  0  0
    1.2950   14.3700   20.7210 O   0  0  0  0  0  0  0  0  0  0  0  0
    1.7530   12.2310   19.1920 C   0  0  0  0  0  0  0  0  0  0  0  0
    2.3980   11.5200   20.3800 C   0  0  0  0  0  0  0  0  0  0  0  0
    3.2760   10.4000   19.9040 C   0  0  0  0  0  0  0  0  0  0  0  0
    4.3550   10.8720   19.2330 O   0  0  0  0  0  0  0  0  0  0  0  0
    3.9080   11.6140   18.0690 C   0  0  0  0  0  0  0  0  0  0  0  0
    2.9870   12.7610   18.4530 C   0  0  0  0  0  0  0  0  0  0  0  0
    0.0300   14.2830   18.5560 N   0  0  0  0  0  0  0  0  0  0  0  0
   -0.9690   13.7790   17.5960 C   0  0  0  0  0  0  0  0  0  0  0  0
   -1.3570   14.7970   16.5310 C   0  0  0  0  0  0  0  0  0  0  0  0
   -1.8530   13.9610   15.3670 C   0  0  0  0  0  0  0  0  0  0  0  0
   -1.2750   12.5800   15.5730 C   0  0  0  0  0  0  0  0  0  0  0  0
   -0.4050   12.6640   16.8170 C   0  0  0  0  0  0  0  0  0  0  0  0
  3  2  2  0
  2  1  2  0
 10  2  1  0
 11 10  1  0
 11 15  1  0
 15 14  1  0
 14 13  1  0
 13 12  1  0
 12 11  1  0
  4  2  1  0
  4  9  1  0
  9  8  1  0
  8  7  1  0
  7  6  1  0
  6  5  1  0
  5  4  1  0
M  END
$$$$
A71EV2A-x0487_A_250_1_A71EV2A-x0911+A+147+1__LIG
     RDKit          3D

 11 11  0  0  0  0  0  0  0  0999 V2000
   11.4760   13.4750   24.7520 O   0  0  0  0  0  0  0  0  0  0  0  0
   11.4570   13.0670   23.5930 C   0  0  0  0  0  0  0  0  0  0  0  0
   12.4060   13.5760   22.5590 C   0  0  0  0  0  0  0  0  0  0  0  0
   10.5600   12.1460   23.1620 N   0  0  0  0  0  0  0  0  0  0  0  0
    9.4660   11.6600   23.9290 C   0  0  0  0  0  0  0  0  0  0  0  0
    9.1230   10.2980   23.8380 C   0  0  0  0  0  0  0  0  0  0  0  0
    9.9040    9.3270   22.9960 C   0  0  0  0  0  0  0  0  0  0  0  0
    8.0470    9.8710   24.6090 C   0  0  0  0  0  0  0  0  0  0  0  0
    7.3330   10.6570   25.4240 N   0  0  0  0  0  0  0  0  0  0  0  0
    7.6830   11.9460   25.4860 C   0  0  0  0  0  0  0  0  0  0  0  0
    8.7350   12.4970   24.7760 C   0  0  0  0  0  0  0  0  0  0  0  0
  3  2  1  0
  2  1  2  0
  4  2  1  0
  5  4  1  0
  5 11  2  0
 11 10  1  0
 10  9  2  0
  9  8  1  0
  8  6  2  0
  6  5  1  0
  7  6  1  0
M  END
$$$$
A71EV2A-x0501_A_151_1_A71EV2A-x0911+A+147+1__LIG
     RDKit          3D

 13 14  0  0  0  0  0  0  0  0999 V2000
    9.2820    8.5910   23.1640 C   0  0  0  0  0  0  0  0  0  0  0  0
    9.4290    9.9880   23.4310 O   0  0  0  0  0  0  0  0  0  0  0  0
    8.5840   10.5660   24.3400 C   0  0  0  0  0  0  0  0  0  0  0  0
    8.8080   11.9240   24.5780 C   0  0  0  0  0  0  0  0  0  0  0  0
    7.9720   12.5990   25.4750 C   0  0  0  0  0  0  0  0  0  0  0  0
    6.9520   11.9260   26.1170 C   0  0  0  0  0  0  0  0  0  0  0  0
    6.7460   10.5880   25.8730 C   0  0  0  0  0  0  0  0  0  0  0  0
    7.5620    9.8980   24.9930 C   0  0  0  0  0  0  0  0  0  0  0  0
    9.8840   12.6600   23.9220 C   0  0  0  0  0  0  0  0  0  0  0  0
   10.6340   13.5830   24.5840 O   0  0  0  0  0  0  0  0  0  0  0  0
   11.5830   13.9420   23.6830 C   0  0  0  0  0  0  0  0  0  0  0  0
   11.4020   13.2850   22.5430 N   0  0  0  0  0  0  0  0  0  0  0  0
   10.2890   12.4780   22.7110 N   0  0  0  0  0  0  0  0  0  0  0  0
  2  1  1  0
  3  2  1  0
  3  8  2  0
  8  7  1  0
  7  6  2  0
  6  5  1  0
  5  4  2  0
  4  3  1  0
  9  4  1  0
  9 13  2  0
 13 12  1  0
 12 11  2  0
 11 10  1  0
 10  9  1  0
M  END
$$$$
A71EV2A-x0501_A_152_1_A71EV2A-x0911+A+147+1__LIG
     RDKit          3D

 13 14  0  0  0  0  0  0  0  0999 V2000
   10.0450    8.7240   23.0690 C   0  0  0  0  0  0  0  0  0  0  0  0
    9.9890   10.1390   23.2040 O   0  0  0  0  0  0  0  0  0  0  0  0
    9.1090   10.6840   24.1080 C   0  0  0  0  0  0  0  0  0  0  0  0
    9.1390   12.0800   24.1960 C   0  0  0  0  0  0  0  0  0  0  0  0
    8.2610   12.7220   25.0710 C   0  0  0  0  0  0  0  0  0  0  0  0
    7.3790   11.9900   25.8410 C   0  0  0  0  0  0  0  0  0  0  0  0
    7.3490   10.6160   25.7420 C   0  0  0  0  0  0  0  0  0  0  0  0
    8.2030    9.9580   24.8680 C   0  0  0  0  0  0  0  0  0  0  0  0
   10.0090   12.9020   23.3660 C   0  0  0  0  0  0  0  0  0  0  0  0
   11.3170   12.5380   23.2170 O   0  0  0  0  0  0  0  0  0  0  0  0
   11.8290   13.4830   22.3880 C   0  0  0  0  0  0  0  0  0  0  0  0
   10.8770   14.3620   22.0650 N   0  0  0  0  0  0  0  0  0  0  0  0
    9.7150   13.9730   22.7050 N   0  0  0  0  0  0  0  0  0  0  0  0
  2  1  1  0
  3  2  1  0
  3  8  2  0
  8  7  1  0
  7  6  2  0
  6  5  1  0
  5  4  2  0
  4  3  1  0
  9  4  1  0
  9 13  2  0
 13 12  1  0
 12 11  2  0
 11 10  1  0
 10  9  1  0
M  END
$$$$
A71EV2A-x0514_B_151_1_A71EV2A-x0911+A+147+1__LIG
     RDKit          3D

 12 13  0  0  0  0  0  0  0  0999 V2000
    5.4930   15.0400   27.4440 N   0  0  0  0  0  0  0  0  0  0  0  0
    5.9660   13.9080   26.9080 C   0  0  0  0  0  0  0  0  0  0  0  0
    5.1190   12.3890   27.1770 S   0  0  0  0  0  0  0  0  0  0  0  0
    7.0170   13.8400   26.1330 N   0  0  0  0  0  0  0  0  0  0  0  0
    7.2110   12.5330   25.6780 C   0  0  0  0  0  0  0  0  0  0  0  0
    6.2710   11.6040   26.1400 C   0  0  0  0  0  0  0  0  0  0  0  0
    6.3300   10.2700   25.7660 C   0  0  0  0  0  0  0  0  0  0  0  0
    7.3480    9.8530   24.9290 C   0  0  0  0  0  0  0  0  0  0  0  0
    8.2300   12.1080   24.8230 C   0  0  0  0  0  0  0  0  0  0  0  0
    8.2790   10.7670   24.4520 C   0  0  0  0  0  0  0  0  0  0  0  0
    9.2540   10.4370   23.5440 O   0  0  0  0  0  0  0  0  0  0  0  0
    9.4010    9.0690   23.1500 C   0  0  0  0  0  0  0  0  0  0  0  0
 12 11  1  0
 11 10  1  0
 10  8  2  0
  8  7  1  0
  7  6  2  0
  6  3  1  0
  3  2  1  0
  2  1  1  0
  4  2  2  0
  5  4  1  0
  6  5  1  0
  9  5  2  0
 10  9  1  0
M  END
$$$$
A71EV2A-x0515_A_201_1_A71EV2A-x0911+A+147+1_ALIG
     RDKit          3D

 11 11  0  0  0  0  0  0  0  0999 V2000
    9.0810   13.7320   24.7780 O   0  0  0  0  0  0  0  0  0  0  0  0
    9.0120   12.5290   24.8190 C   0  0  0  0  0  0  0  0  0  0  0  0
    9.9870   11.7170   24.4220 O   0  0  0  0  0  0  0  0  0  0  0  0
   10.3720   11.8080   23.0290 C   0  0  0  0  0  0  0  0  0  0  0  0
    7.8470   11.7890   25.3700 C   0  0  0  0  0  0  0  0  0  0  0  0
    7.6140   10.4260   25.0710 C   0  0  0  0  0  0  0  0  0  0  0  0
    8.4410    9.6800   24.2450 N   0  0  0  0  0  0  0  0  0  0  0  0
    6.5270    9.8150   25.6610 C   0  0  0  0  0  0  0  0  0  0  0  0
    5.6960   10.4280   26.5050 N   0  0  0  0  0  0  0  0  0  0  0  0
    5.9280   11.7160   26.7740 C   0  0  0  0  0  0  0  0  0  0  0  0
    6.9730   12.4430   26.2350 C   0  0  0  0  0  0  0  0  0  0  0  0
  4  3  1  0
  3  2  1  0
  2  1  2  0
  5  2  1  0
  5 11  2  0
 11 10  1  0
 10  9  2  0
  9  8  1  0
  8  6  2  0
  6  5  1  0
  7  6  1  0
M  END
$$$$
A71EV2A-x0515_A_201_1_A71EV2A-x0911+A+147+1_BLIG
     RDKit          3D

 11 11  0  0  0  0  0  0  0  0999 V2000
   10.1370   11.1540   23.1920 O   0  0  0  0  0  0  0  0  0  0  0  0
    9.2570   10.6670   23.8440 C   0  0  0  0  0  0  0  0  0  0  0  0
    9.0100    9.3640   23.8530 O   0  0  0  0  0  0  0  0  0  0  0  0
    9.8080    8.5750   22.9380 C   0  0  0  0  0  0  0  0  0  0  0  0
    8.3340   11.4530   24.7170 C   0  0  0  0  0  0  0  0  0  0  0  0
    7.3050   10.8380   25.4630 C   0  0  0  0  0  0  0  0  0  0  0  0
    7.1120    9.4770   25.4870 N   0  0  0  0  0  0  0  0  0  0  0  0
    6.4510   11.6660   26.2110 C   0  0  0  0  0  0  0  0  0  0  0  0
    6.5630   13.0000   26.2470 N   0  0  0  0  0  0  0  0  0  0  0  0
    7.5530   13.5560   25.5420 C   0  0  0  0  0  0  0  0  0  0  0  0
    8.4590   12.8410   24.7780 C   0  0  0  0  0  0  0  0  0  0  0  0
  4  3  1  0
  3  2  1  0
  2  1  2  0
  5  2  1  0
  5 11  2  0
 11 10  1  0
 10  9  2  0
  9  8  1  0
  8  6  2  0
  6  5  1  0
  7  6  1  0
M  END
$$$$
A71EV2A-x0526_A_147_1_A71EV2A-x0911+A+147+1__LIG
     RDKit          3D

 12 13  0  0  0  0  0  0  0  0999 V2000
    3.2990   10.4300   20.2810 C   0  0  0  0  0  0  0  0  0  0  0  0
    3.1260   11.3220   19.1010 C   0  0  0  0  0  0  0  0  0  0  0  0
    1.9480   11.9490   18.7510 N   0  0  0  0  0  0  0  0  0  0  0  0
    2.2170   12.6790   17.6020 C   0  0  0  0  0  0  0  0  0  0  0  0
    3.5150   12.4650   17.3250 C   0  0  0  0  0  0  0  0  0  0  0  0
    4.0850   11.6490   18.2490 N   0  0  0  0  0  0  0  0  0  0  0  0
    0.6720   11.9150   19.4200 C   0  0  0  0  0  0  0  0  0  0  0  0
    0.5190   11.9210   20.7880 C   0  0  0  0  0  0  0  0  0  0  0  0
   -0.6540   11.9510   21.4110 N   0  0  0  0  0  0  0  0  0  0  0  0
   -1.7430   12.0190   20.6610 C   0  0  0  0  0  0  0  0  0  0  0  0
   -1.7000   12.0630   19.2940 C   0  0  0  0  0  0  0  0  0  0  0  0
   -0.4810   11.9780   18.6680 C   0  0  0  0  0  0  0  0  0  0  0  0
  2  1  1  0
  2  6  2  0
  6  5  1  0
  5  4  2  0
  4  3  1  0
  3  2  1  0
  7  3  1  0
  7 12  2  0
 12 11  1  0
 11 10  2  0
 10  9  1  0
  9  8  2  0
  8  7  1  0
M  END
$$$$
A71EV2A-x0528_A_147_1_A71EV2A-x0911+A+147+1__LIG
     RDKit          3D

 15 16  0  0  0  0  0  0  0  0999 V2000
   10.0980   16.1610   21.7630 O   0  0  0  0  0  0  0  0  0  0  0  0
   11.0240   15.4160   22.0390 C   0  0  0  0  0  0  0  0  0  0  0  0
   12.3220   15.7020   21.9000 N   0  0  0  0  0  0  0  0  0  0  0  0
   12.8350   16.7130   20.9870 C   0  0  0  0  0  0  0  0  0  0  0  0
   10.9280   13.9920   22.5750 C   0  0  1  0  0  0  0  0  0  0  0  0
   12.3590   13.6760   23.0450 C   0  0  0  0  0  0  0  0  0  0  0  0
   13.2070   14.8990   22.7210 C   0  0  0  0  0  0  0  0  0  0  0  0
   10.0050   13.9260   23.6780 O   0  0  0  0  0  0  0  0  0  0  0  0
    9.4550   12.7040   24.0210 C   0  0  0  0  0  0  0  0  0  0  0  0
    9.8850   11.5010   23.4740 C   0  0  0  0  0  0  0  0  0  0  0  0
    9.2570   10.3550   23.8970 C   0  0  0  0  0  0  0  0  0  0  0  0
    9.7030    9.1680   23.4060 F   0  0  0  0  0  0  0  0  0  0  0  0
    8.2400   10.3420   24.8120 C   0  0  0  0  0  0  0  0  0  0  0  0
    7.8230   11.5520   25.3410 C   0  0  0  0  0  0  0  0  0  0  0  0
    8.4270   12.7370   24.9500 C   0  0  0  0  0  0  0  0  0  0  0  0
  4  3  1  0
  3  7  1  0
  7  6  1  0
  6  5  1  0
  5  8  1  1
  9  8  1  0
  9 15  2  0
 15 14  1  0
 14 13  2  0
 13 11  1  0
 12 11  1  0
 11 10  2  0
 10  9  1  0
  5  2  1  0
  3  2  1  0
  2  1  2  0
M  END
$$$$
A71EV2A-x0554_A_201_1_A71EV2A-x0911+A+147+1__LIG
     RDKit          3D

 13 14  0  0  0  0  0  0  0  0999 V2000
   10.9670   13.8430   24.6240 O   0  0  0  0  0  0  0  0  0  0  0  0
   11.0770   13.5370   23.4490 C   0  0  0  0  0  0  0  0  0  0  0  0
   11.9730   14.2950   22.5090 C   0  0  0  0  0  0  0  0  0  0  0  0
   10.4350   12.4710   22.9060 N   0  0  0  0  0  0  0  0  0  0  0  0
    9.5150   11.5930   23.5110 C   0  0  0  0  0  0  0  0  0  0  0  0
    8.4980   12.0030   24.3880 C   0  0  0  0  0  0  0  0  0  0  0  0
    8.1670   13.2530   24.8500 N   0  0  0  0  0  0  0  0  0  0  0  0
    7.0570   13.1450   25.6510 C   0  0  0  0  0  0  0  0  0  0  0  0
    6.6630   11.8500   25.7280 C   0  0  0  0  0  0  0  0  0  0  0  0
    7.5640   11.0880   24.9210 C   0  0  0  0  0  0  0  0  0  0  0  0
    7.6590    9.7480   24.5500 C   0  0  0  0  0  0  0  0  0  0  0  0
    8.6790    9.3350   23.7130 C   0  0  0  0  0  0  0  0  0  0  0  0
    9.5850   10.2390   23.1970 C   0  0  0  0  0  0  0  0  0  0  0  0
  3  2  1  0
  2  1  2  0
  4  2  1  0
  5  4  1  0
  5 13  2  0
 13 12  1  0
 12 11  2  0
 11 10  1  0
 10  9  1  0
  9  8  2  0
  8  7  1  0
  7  6  1  0
  6  5  1  0
 10  6  2  0
M  END
$$$$
A71EV2A-x0556_A_147_1_A71EV2A-x0911+A+147+1__LIG
     RDKit          3D

 14 15  0  0  0  0  0  0  0  0999 V2000
    5.5240   11.7430   26.3370 O   0  0  0  0  0  0  0  0  0  0  0  0
    6.1730   10.7380   26.2980 C   0  0  0  0  0  0  0  0  0  0  0  0
    7.2770   10.6190   25.3570 C   0  0  0  0  0  0  0  0  0  0  0  0
    7.7920   11.6780   24.8170 C   0  0  0  0  0  0  0  0  0  0  0  0
    7.3650   12.8900   25.1850 N   0  0  0  0  0  0  0  0  0  0  0  0
    8.7680   11.2510   23.9760 C   0  0  0  0  0  0  0  0  0  0  0  0
    7.8530    9.4780   24.9550 N   0  0  0  0  0  0  0  0  0  0  0  0
    8.7760    9.9200   24.0870 N   0  0  0  0  0  0  0  0  0  0  0  0
    9.6770    8.9740   23.4490 C   0  0  0  0  0  0  0  0  0  0  0  0
    6.0130    9.7270   27.1510 N   0  0  0  0  0  0  0  0  0  0  0  0
    4.7960    9.6060   27.9500 C   0  0  0  0  0  0  0  0  0  0  0  0
    3.4950    9.1580   27.2110 C   0  0  0  0  0  0  0  0  0  0  0  0
    3.1750    8.5750   28.5780 C   0  0  0  0  0  0  0  0  0  0  0  0
    4.6670    8.4600   28.7970 C   0  0  0  0  0  0  0  0  0  0  0  0
  9  8  1  0
  8  6  1  0
  6  4  2  0
  5  4  1  0
  4  3  1  0
  7  3  2  0
  8  7  1  0
  3  2  1  0
  2  1  2  0
 10  2  1  0
 11 10  1  0
 11 14  1  0
 14 13  1  0
 13 12  1  0
 12 11  1  0
M  END
$$$$
A71EV2A-x0566_A_147_1_A71EV2A-x0911+A+147+1__LIG
     RDKit          3D

 13 14  0  0  0  0  0  0  0  0999 V2000
   12.1700   13.6410   24.3760 O   0  0  0  0  0  0  0  0  0  0  0  0
   11.1980   13.7110   23.6240 C   0  0  0  0  0  0  0  0  0  0  0  0
   11.1150   14.7190   22.7640 N   0  0  0  0  0  0  0  0  0  0  0  0
   12.3000   15.4000   22.2810 C   0  0  0  0  0  0  0  0  0  0  0  0
   10.1670   12.5890   23.5270 C   0  0  0  0  0  0  0  0  0  0  0  0
    8.9750   12.5120   24.3180 C   0  0  0  0  0  0  0  0  0  0  0  0
    8.2720   13.4950   24.9720 N   0  0  0  0  0  0  0  0  0  0  0  0
    7.1650   12.9350   25.5440 C   0  0  0  0  0  0  0  0  0  0  0  0
    7.1360   11.6020   25.2960 C   0  0  0  0  0  0  0  0  0  0  0  0
    8.2700   11.3000   24.4920 C   0  0  0  0  0  0  0  0  0  0  0  0
    8.7280   10.1570   23.8390 C   0  0  0  0  0  0  0  0  0  0  0  0
    9.8250   10.2340   23.0070 C   0  0  0  0  0  0  0  0  0  0  0  0
   10.5290   11.4370   22.8350 C   0  0  0  0  0  0  0  0  0  0  0  0
  4  3  1  0
  3  2  1  0
  2  1  2  0
  5  2  1  0
  5 13  2  0
 13 12  1  0
 12 11  2  0
 11 10  1  0
 10  9  1  0
  9  8  2  0
  8  7  1  0
  7  6  1  0
  6  5  1  0
 10  6  2  0
M  END
$$$$
A71EV2A-x0310_A_147_1_A71EV2A-x0911+A+147+1__LIG
     RDKit          3D

 14 14  0  0  0  0  0  0  0  0999 V2000
   12.5790   15.9990   23.1660 N   0  0  0  0  0  0  0  0  0  0  0  0
   12.4570   14.9080   22.8710 C   0  0  0  0  0  0  0  0  0  0  0  0
   12.2040   13.5210   22.4900 C   0  0  0  0  0  0  0  0  0  0  0  0
   11.1410   12.9070   23.3800 C   0  0  0  0  0  0  0  0  0  0  0  0
   10.9590   13.2970   24.5190 O   0  0  0  0  0  0  0  0  0  0  0  0
   10.3850   11.9330   22.8190 N   0  0  0  0  0  0  0  0  0  0  0  0
    9.3930   11.2520   23.5150 C   0  0  0  0  0  0  0  0  0  0  0  0
    9.2380    9.8470   23.4690 C   0  0  0  0  0  0  0  0  0  0  0  0
   10.0440    8.8130   22.7540 C   0  0  0  0  0  0  0  0  0  0  0  0
    8.4130   11.7340   24.3270 C   0  0  0  0  0  0  0  0  0  0  0  0
    8.0890   13.1380   24.7140 C   0  0  0  0  0  0  0  0  0  0  0  0
    7.7320   10.6670   24.7440 N   0  0  0  0  0  0  0  0  0  0  0  0
    8.2100    9.5020   24.2230 N   0  0  0  0  0  0  0  0  0  0  0  0
    6.6430   10.6180   25.7080 C   0  0  0  0  0  0  0  0  0  0  0  0
  9  8  1  0
  8 13  2  0
 13 12  1  0
 14 12  1  0
 12 10  1  0
 11 10  1  0
 10  7  2  0
  8  7  1  0
  7  6  1  0
  6  4  1  0
  5  4  2  0
  4  3  1  0
  3  2  1  0
  2  1  3  0
M  END
$$$$
A71EV2A-x0207_A_151_1_A71EV2A-x0911+A+147+1__LIG
     RDKit          3D

 15 16  0  0  0  0  0  0  0  0999 V2000
    5.5450   10.7980   26.7400 O   0  0  0  0  0  0  0  0  0  0  0  0
    6.3180   11.5560   26.1560 C   0  0  0  0  0  0  0  0  0  0  0  0
    7.3140   11.0240   25.2230 C   0  0  0  0  0  0  0  0  0  0  0  0
    7.4900    9.7780   24.7220 C   0  0  0  0  0  0  0  0  0  0  0  0
    8.2250   11.8720   24.6890 O   0  0  0  0  0  0  0  0  0  0  0  0
    9.0300   11.1340   23.7770 N   0  0  0  0  0  0  0  0  0  0  0  0
    8.5710    9.8970   23.8310 C   0  0  0  0  0  0  0  0  0  0  0  0
    9.2040    8.8400   22.9830 C   0  0  0  0  0  0  0  0  0  0  0  0
    6.3210   12.8800   26.3250 N   0  0  0  0  0  0  0  0  0  0  0  0
    5.9710   13.4980   27.6000 C   0  0  0  0  0  0  0  0  0  0  0  0
    4.5710   14.0900   27.6020 C   0  0  2  0  0  0  0  0  0  0  0  0
    3.9540   14.2190   26.2190 C   0  0  0  0  0  0  0  0  0  0  0  0
    2.9030   15.1700   26.3780 O   0  0  0  0  0  0  0  0  0  0  0  0
    3.3850   16.1620   27.2890 C   0  0  0  0  0  0  0  0  0  0  0  0
    4.5320   15.5480   28.0800 C   0  0  0  0  0  0  0  0  0  0  0  0
  8  7  1  0
  7  4  1  0
  4  3  2  0
  5  3  1  0
  6  5  1  0
  7  6  2  0
  3  2  1  0
  2  1  2  0
  9  2  1  0
 10  9  1  0
 11 10  1  6
 11 15  1  0
 15 14  1  0
 14 13  1  0
 13 12  1  0
 12 11  1  0
M  END
$$$$
A71EV2A-x0237_A_151_1_A71EV2A-x0911+A+147+1__LIG
     RDKit          3D

 15 16  0  0  0  0  0  0  0  0999 V2000
    6.7120   12.7210   29.0980 O   0  0  0  0  0  0  0  0  0  0  0  0
    6.0670   11.7720   28.6550 C   0  0  0  0  0  0  0  0  0  0  0  0
    6.1020   10.4100   29.2970 C   0  0  0  0  0  0  0  0  0  0  0  0
    6.9920   10.2450   30.5280 C   0  0  0  0  0  0  0  0  0  0  0  0
    5.7240   10.0130   31.3880 C   0  0  0  0  0  0  0  0  0  0  0  0
    4.8660    9.9730   30.0970 C   0  0  0  0  0  0  0  0  0  0  0  0
    5.3130   11.8700   27.5640 N   0  0  0  0  0  0  0  0  0  0  0  0
    5.8310   12.3940   26.3140 C   0  0  0  0  0  0  0  0  0  0  0  0
    6.8900   11.5260   25.6770 C   0  0  0  0  0  0  0  0  0  0  0  0
    8.0380   12.0810   25.1500 C   0  0  0  0  0  0  0  0  0  0  0  0
    8.9000   11.3140   24.3960 C   0  0  0  0  0  0  0  0  0  0  0  0
    6.6870   10.1770   25.4450 C   0  0  0  0  0  0  0  0  0  0  0  0
    7.4970    9.4100   24.6940 N   0  0  0  0  0  0  0  0  0  0  0  0
    8.5970    9.9750   24.1630 C   0  0  0  0  0  0  0  0  0  0  0  0
    9.4770    9.1180   23.3050 C   0  0  0  0  0  0  0  0  0  0  0  0
 15 14  1  0
 14 11  1  0
 11 10  2  0
 10  9  1  0
  9  8  1  0
  8  7  1  0
  7  2  1  0
  2  1  2  0
  3  2  1  0
  3  6  1  0
  6  5  1  0
  5  4  1  0
  4  3  1  0
 12  9  2  0
 13 12  1  0
 14 13  2  0
M  END
$$$$
A71EV2A-x0351_A_301_1_A71EV2A-x0911+A+147+1__LIG
     RDKit          3D

 16 17  0  0  0  0  0  0  0  0999 V2000
    8.6870   14.9890   28.3390 O   0  0  0  0  0  0  0  0  0  0  0  0
    7.6490   15.6850   27.6380 S   0  0  0  0  0  0  0  0  0  0  0  0
    7.6190   17.1170   27.6670 O   0  0  0  0  0  0  0  0  0  0  0  0
    6.0810   15.1190   28.2650 C   0  0  0  0  0  0  0  0  0  0  0  0
    4.9330   15.9920   27.8170 C   0  0  0  0  0  0  0  0  0  0  0  0
    7.7710   15.2460   26.0690 N   0  0  0  0  0  0  0  0  0  0  0  0
    6.8270   14.3670   25.3680 C   0  0  0  0  0  0  0  0  0  0  0  0
    7.4020   12.9880   25.1590 C   0  0  0  0  0  0  0  0  0  0  0  0
    8.5050   12.8050   24.3270 C   0  0  0  0  0  0  0  0  0  0  0  0
    8.8960   11.5200   24.0170 C   0  0  0  0  0  0  0  0  0  0  0  0
    9.9020   11.1090   23.1700 O   0  0  0  0  0  0  0  0  0  0  0  0
    9.9100    9.6810   23.2550 C   0  0  0  0  0  0  0  0  0  0  0  0
    8.7660    9.2740   24.0040 O   0  0  0  0  0  0  0  0  0  0  0  0
    8.2440   10.4330   24.5360 C   0  0  0  0  0  0  0  0  0  0  0  0
    7.1860   10.5850   25.4110 C   0  0  0  0  0  0  0  0  0  0  0  0
    6.7730   11.8730   25.7100 C   0  0  0  0  0  0  0  0  0  0  0  0
  5  4  1  0
  4  2  1  0
  3  2  2  0
  2  1  2  0
  6  2  1  0
  7  6  1  0
  8  7  1  0
  8 16  2  0
 16 15  1  0
 15 14  2  0
 14 13  1  0
 13 12  1  0
 12 11  1  0
 11 10  1  0
 14 10  1  0
 10  9  2  0
  9  8  1  0
M  END
$$$$
A71EV2A-x0365_A_201_1_A71EV2A-x0911+A+147+1__LIG
     RDKit          3D

 14 15  0  0  0  0  0  0  0  0999 V2000
    9.6240    8.8680   22.9410 C   0  0  0  0  0  0  0  0  0  0  0  0
    8.8410    9.6040   23.9210 N   0  0  0  0  0  0  0  0  0  0  0  0
    7.8610    8.9680   24.5800 N   0  0  0  0  0  0  0  0  0  0  0  0
    7.2800    9.9620   25.2950 C   0  0  0  0  0  0  0  0  0  0  0  0
    7.9230   11.2500   25.0910 C   0  0  0  0  0  0  0  0  0  0  0  0
    8.9310   10.9710   24.2270 C   0  0  0  0  0  0  0  0  0  0  0  0
    6.2290    9.7980   26.1090 N   0  0  0  0  0  0  0  0  0  0  0  0
    5.6040   10.9370   26.7530 C   0  0  0  0  0  0  0  0  0  0  0  0
    6.2580   11.1970   28.0840 C   0  0  0  0  0  0  0  0  0  0  0  0
    6.9330   12.3850   28.3520 C   0  0  0  0  0  0  0  0  0  0  0  0
    7.5530   12.5900   29.5760 C   0  0  0  0  0  0  0  0  0  0  0  0
    7.5260   11.6000   30.5390 C   0  0  0  0  0  0  0  0  0  0  0  0
    6.8530   10.4100   30.2840 C   0  0  0  0  0  0  0  0  0  0  0  0
    6.2220   10.2150   29.0640 C   0  0  0  0  0  0  0  0  0  0  0  0
  2  1  1  0
  2  6  1  0
  6  5  2  0
  5  4  1  0
  7  4  1  0
  8  7  1  0
  9  8  1  0
  9 14  2  0
 14 13  1  0
 13 12  2  0
 12 11  1  0
 11 10  2  0
 10  9  1  0
  4  3  2  0
  3  2  1  0
M  END
$$$$
A71EV2A-x0375_A_301_1_A71EV2A-x0911+A+147+1__LIG
     RDKit          3D

 12 12  0  0  0  0  0  0  0  0999 V2000
   11.9100   12.7410   25.3030 S   0  0  0  0  0  0  0  0  0  0  0  0
   11.4960   13.2920   23.7630 C   0  0  0  0  0  0  0  0  0  0  0  0
   12.3720   13.8490   22.9560 N   0  0  0  0  0  0  0  0  0  0  0  0
   10.2390   13.1620   23.3100 N   0  0  0  0  0  0  0  0  0  0  0  0
    9.1360   12.6010   23.9950 C   0  0  0  0  0  0  0  0  0  0  0  0
    9.1190   11.2080   24.1760 C   0  0  0  0  0  0  0  0  0  0  0  0
   10.1610   10.5420   23.5920 O   0  0  0  0  0  0  0  0  0  0  0  0
    9.9220    9.2220   23.1100 C   0  0  0  0  0  0  0  0  0  0  0  0
    8.0970   13.3690   24.5170 C   0  0  0  0  0  0  0  0  0  0  0  0
    7.0680   12.7520   25.2080 C   0  0  0  0  0  0  0  0  0  0  0  0
    7.0630   11.3810   25.3840 C   0  0  0  0  0  0  0  0  0  0  0  0
    8.0940   10.6020   24.8830 C   0  0  0  0  0  0  0  0  0  0  0  0
  8  7  1  0
  7  6  1  0
  6 12  2  0
 12 11  1  0
 11 10  2  0
 10  9  1  0
  9  5  2  0
  6  5  1  0
  5  4  1  0
  4  2  1  0
  2  1  2  0
  3  2  1  0
M  END
$$$$
A71EV2A-x0387_A_151_1_A71EV2A-x0911+A+147+1__LIG
     RDKit          3D

 15 15  0  0  0  0  0  0  0  0999 V2000
    8.7790   14.4980   26.1390 O   0  0  0  0  0  0  0  0  0  0  0  0
    7.6530   14.5170   25.6580 C   0  0  0  0  0  0  0  0  0  0  0  0
    6.7870   15.7580   25.7630 C   0  0  0  0  0  0  0  0  0  0  0  0
    6.7250   16.2660   27.0880 O   0  0  0  0  0  0  0  0  0  0  0  0
    7.9850   16.5240   27.6890 C   0  0  0  0  0  0  0  0  0  0  0  0
    7.1230   13.4910   24.9700 N   0  0  0  0  0  0  0  0  0  0  0  0
    7.8350   12.2950   24.6610 C   0  0  0  0  0  0  0  0  0  0  0  0
    8.9280   12.3520   23.7870 C   0  0  0  0  0  0  0  0  0  0  0  0
    9.4530   13.6530   23.2300 C   0  0  0  0  0  0  0  0  0  0  0  0
    9.4860   11.1550   23.3540 C   0  0  0  0  0  0  0  0  0  0  0  0
    8.9850    9.9240   23.7410 C   0  0  0  0  0  0  0  0  0  0  0  0
    9.5500    8.6480   23.1680 C   0  0  0  0  0  0  0  0  0  0  0  0
    7.9160    9.9020   24.6270 C   0  0  0  0  0  0  0  0  0  0  0  0
    7.3340   11.0700   25.1160 C   0  0  0  0  0  0  0  0  0  0  0  0
    6.1880   10.9870   26.0910 C   0  0  0  0  0  0  0  0  0  0  0  0
  5  4  1  0
  4  3  1  0
  3  2  1  0
  2  1  2  0
  6  2  1  0
  7  6  1  0
  7 14  2  0
 15 14  1  0
 14 13  1  0
 13 11  2  0
 12 11  1  0
 11 10  1  0
 10  8  2  0
  8  7  1  0
  9  8  1  0
M  END
$$$$
A71EV2A-x0416_A_147_1_A71EV2A-x0911+A+147+1__LIG
     RDKit          3D

 15 16  0  0  0  0  0  0  0  0999 V2000
    7.9050   14.6420   24.9030 O   0  0  0  0  0  0  0  0  0  0  0  0
    7.7740   14.1690   26.0280 C   0  0  0  0  0  0  0  0  0  0  0  0
    7.4290   15.0760   27.2030 C   0  0  1  0  0  0  0  0  0  0  0  0
    6.6220   14.3910   28.1790 O   0  0  0  0  0  0  0  0  0  0  0  0
    6.8870   14.9720   29.4640 C   0  0  0  0  0  0  0  0  0  0  0  0
    8.0360   15.9440   29.2980 C   0  0  0  0  0  0  0  0  0  0  0  0
    8.6470   15.5400   27.9720 C   0  0  0  0  0  0  0  0  0  0  0  0
    7.8950   12.8540   26.3220 N   0  0  0  0  0  0  0  0  0  0  0  0
    8.2210   11.8030   25.4520 C   0  0  0  0  0  0  0  0  0  0  0  0
    9.1390   11.9570   24.4060 C   0  0  0  0  0  0  0  0  0  0  0  0
    9.4710   10.8380   23.6670 C   0  0  0  0  0  0  0  0  0  0  0  0
    7.6490   10.6220   25.7370 N   0  0  0  0  0  0  0  0  0  0  0  0
    8.0030    9.5620   24.9940 C   0  0  0  0  0  0  0  0  0  0  0  0
    8.9150    9.6040   23.9500 C   0  0  0  0  0  0  0  0  0  0  0  0
    9.2960    8.3690   23.1720 C   0  0  0  0  0  0  0  0  0  0  0  0
 15 14  1  0
 14 11  1  0
 11 10  2  0
 10  9  1  0
  9  8  1  0
  8  2  1  0
  2  1  2  0
  3  2  1  6
  3  7  1  0
  7  6  1  0
  6  5  1  0
  5  4  1  0
  4  3  1  0
 12  9  2  0
 13 12  1  0
 14 13  2  0
M  END
$$$$
A71EV2A-x0437_A_250_1_A71EV2A-x0911+A+147+1__LIG
     RDKit          3D

 10 10  0  0  0  0  0  0  0  0999 V2000
    5.4750   13.1660   28.2910 C   0  0  0  0  0  0  0  0  0  0  0  0
    5.9980   12.1280   27.3450 C   0  0  0  0  0  0  0  0  0  0  0  0
    5.3780   10.8980   27.1920 C   0  0  0  0  0  0  0  0  0  0  0  0
    5.9300    9.9790   26.3250 C   0  0  0  0  0  0  0  0  0  0  0  0
    7.1010   12.4460   26.6680 N   0  0  0  0  0  0  0  0  0  0  0  0
    7.6550   11.5490   25.8050 N   0  0  0  0  0  0  0  0  0  0  0  0
    7.0980   10.3510   25.6530 C   0  0  0  0  0  0  0  0  0  0  0  0
    7.7490    9.4840   24.8300 N   0  0  0  0  0  0  0  0  0  0  0  0
    8.9160    9.8930   24.0340 C   0  0  0  0  0  0  0  0  0  0  0  0
    9.4670    8.8080   23.1570 C   0  0  0  0  0  0  0  0  0  0  0  0
 10  9  1  0
  9  8  1  0
  8  7  1  0
  7  4  2  0
  4  3  1  0
  3  2  2  0
  2  1  1  0
  5  2  1  0
  6  5  2  0
  7  6  1  0
M  END
$$$$
A71EV2A-x0443_A_250_1_A71EV2A-x0911+A+147+1__LIG
     RDKit          3D

 10 11  0  0  0  0  0  0  0  0999 V2000
    9.4580    8.9420   23.2190 C   0  0  0  0  0  0  0  0  0  0  0  0
    8.6420    9.8260   24.1070 C   0  0  0  0  0  0  0  0  0  0  0  0
    7.5770    9.2980   24.8190 N   0  0  0  0  0  0  0  0  0  0  0  0
    7.0740   10.3050   25.5180 C   0  0  0  0  0  0  0  0  0  0  0  0
    7.7820   11.4750   25.2610 N   0  0  0  0  0  0  0  0  0  0  0  0
    8.7800   11.1550   24.3700 C   0  0  0  0  0  0  0  0  0  0  0  0
    6.0160   10.3550   26.4620 C   0  0  0  0  0  0  0  0  0  0  0  0
    5.7190   11.5400   27.0670 C   0  0  0  0  0  0  0  0  0  0  0  0
    6.4480   12.7190   26.7620 C   0  0  0  0  0  0  0  0  0  0  0  0
    7.4680   12.6800   25.8760 C   0  0  0  0  0  0  0  0  0  0  0  0
  2  1  1  0
  2  6  2  0
  6  5  1  0
  5 10  1  0
 10  9  2  0
  9  8  1  0
  8  7  2  0
  7  4  1  0
  5  4  1  0
  4  3  2  0
  3  2  1  0
M  END
$$$$
A71EV2A-x0446_A_147_1_A71EV2A-x0911+A+147+1__LIG
     RDKit          3D

 10 10  0  0  0  0  0  0  0  0999 V2000
    9.7410   11.2930   24.7970 O   0  0  0  0  0  0  0  0  0  0  0  0
    8.7470   10.6230   24.5350 C   0  0  0  0  0  0  0  0  0  0  0  0
    8.7800    9.5430   23.7620 N   0  0  0  0  0  0  0  0  0  0  0  0
    9.9110    9.2370   22.9080 C   0  0  0  0  0  0  0  0  0  0  0  0
    7.4400   10.9870   25.1120 C   0  0  0  0  0  0  0  0  0  0  0  0
    7.2740   12.6390   25.6060 S   0  0  0  0  0  0  0  0  0  0  0  0
    5.6810   12.2790   26.1940 C   0  0  0  0  0  0  0  0  0  0  0  0
    4.8390   13.3200   26.8490 C   0  0  0  0  0  0  0  0  0  0  0  0
    5.3000   11.0460   26.0290 N   0  0  0  0  0  0  0  0  0  0  0  0
    6.2960   10.3220   25.4160 C   0  0  0  0  0  0  0  0  0  0  0  0
  4  3  1  0
  3  2  1  0
  2  1  2  0
  5  2  1  0
  5 10  2  0
 10  9  1  0
  9  7  2  0
  8  7  1  0
  7  6  1  0
  6  5  1  0
M  END
$$$$
A71EV2A-x0719_A_301_1_A71EV2A-x0911+A+147+1__LIG
     RDKit          3D

 13 13  0  0  0  0  0  0  0  0999 V2000
    7.2410   13.3110   21.9860 O   0  0  0  0  0  0  0  0  0  0  0  0
    7.2630   14.6970   22.3250 S   0  0  0  0  0  0  0  0  0  0  0  0
    8.4090   15.4940   22.0280 O   0  0  0  0  0  0  0  0  0  0  0  0
    5.9630   15.4080   21.7150 N   0  0  0  0  0  0  0  0  0  0  0  0
    6.8920   14.8260   24.0550 C   0  0  0  0  0  0  0  0  0  0  0  0
    7.9420   14.2430   25.0170 C   0  0  1  0  0  0  0  0  0  0  0  0
    7.4570   14.4430   26.4510 C   0  0  0  0  0  0  0  0  0  0  0  0
    8.3290   12.7940   24.7380 C   0  0  0  0  0  0  0  0  0  0  0  0
    9.4190   12.4930   23.9310 C   0  0  0  0  0  0  0  0  0  0  0  0
    9.7520   11.1760   23.6460 C   0  0  0  0  0  0  0  0  0  0  0  0
    9.0220   10.1430   24.1960 C   0  0  0  0  0  0  0  0  0  0  0  0
    7.9490   10.4300   25.0120 C   0  0  0  0  0  0  0  0  0  0  0  0
    7.5960   11.7420   25.2670 C   0  0  0  0  0  0  0  0  0  0  0  0
  6  7  1  1
  6  5  1  0
  5  2  1  0
  3  2  2  0
  2  1  2  0
  4  2  1  0
  8  6  1  0
  8 13  2  0
 13 12  1  0
 12 11  2  0
 11 10  1  0
 10  9  2  0
  9  8  1  0
M  END
$$$$
A71EV2A-x0732_A_201_1_A71EV2A-x0911+A+147+1__LIG
     RDKit          3D

 14 14  0  0  0  0  0  0  0  0999 V2000
    5.9580   13.3350   22.4190 O   0  0  0  0  0  0  0  0  0  0  0  0
    6.5610   14.0820   23.1870 C   0  0  0  0  0  0  0  0  0  0  0  0
    6.4620   15.5800   23.0160 C   0  0  0  0  0  0  0  0  0  0  0  0
    6.2060   16.2370   24.2430 O   0  0  0  0  0  0  0  0  0  0  0  0
    7.3430   13.6550   24.2050 N   0  0  0  0  0  0  0  0  0  0  0  0
    8.1700   12.4990   24.1270 C   0  0  0  0  0  0  0  0  0  0  0  0
    7.7760   11.3330   24.7890 C   0  0  0  0  0  0  0  0  0  0  0  0
    6.6260   11.3240   25.7630 C   0  0  0  0  0  0  0  0  0  0  0  0
    8.5070   10.1710   24.5600 C   0  0  0  0  0  0  0  0  0  0  0  0
    9.3050   12.5240   23.3100 C   0  0  0  0  0  0  0  0  0  0  0  0
    9.7870   13.7900   22.6490 C   0  0  0  0  0  0  0  0  0  0  0  0
   10.0030   11.3350   23.1220 C   0  0  0  0  0  0  0  0  0  0  0  0
    9.6110   10.1460   23.7190 C   0  0  0  0  0  0  0  0  0  0  0  0
   10.3300    8.8550   23.4190 C   0  0  0  0  0  0  0  0  0  0  0  0
 14 13  1  0
 13  9  2  0
  9  7  1  0
  8  7  1  0
  7  6  2  0
  6  5  1  0
  5  2  1  0
  2  1  2  0
  3  2  1  0
  4  3  1  0
 10  6  1  0
 11 10  1  0
 12 10  2  0
 13 12  1  0
M  END
$$$$
A71EV2A-x0739_A_147_1_A71EV2A-x0911+A+147+1__LIG
     RDKit          3D

 18 19  0  0  0  0  0  0  0  0999 V2000
    7.9950   15.7680   23.6460 O   0  0  0  0  0  0  0  0  0  0  0  0
    7.4350   15.4290   24.6730 C   0  0  0  0  0  0  0  0  0  0  0  0
    6.3860   16.0990   25.1890 N   0  0  0  0  0  0  0  0  0  0  0  0
    5.8680   16.1600   26.5580 C   0  0  0  0  0  0  0  0  0  0  0  0
    4.3860   15.8640   26.5570 C   0  0  0  0  0  0  0  0  0  0  0  0
    3.6910   16.7500   25.6930 O   0  0  0  0  0  0  0  0  0  0  0  0
    4.0810   16.4540   24.3780 C   0  0  0  0  0  0  0  0  0  0  0  0
    5.5540   16.7530   24.1610 C   0  0  0  0  0  0  0  0  0  0  0  0
    7.7750   14.1330   25.3050 C   0  0  0  0  0  0  0  0  0  0  0  0
    6.8440   13.3340   24.6930 O   0  0  0  0  0  0  0  0  0  0  0  0
    7.2930   12.3510   23.8490 C   0  0  0  0  0  0  0  0  0  0  0  0
    8.3100   12.5300   22.9300 C   0  0  0  0  0  0  0  0  0  0  0  0
    8.9380   11.4210   22.3870 C   0  0  0  0  0  0  0  0  0  0  0  0
    6.8250   11.0820   24.1550 C   0  0  0  0  0  0  0  0  0  0  0  0
    5.6130   10.8930   25.0280 C   0  0  0  0  0  0  0  0  0  0  0  0
    7.4690    9.9910   23.5820 C   0  0  0  0  0  0  0  0  0  0  0  0
    8.5290   10.1340   22.7010 C   0  0  0  0  0  0  0  0  0  0  0  0
    9.1950    8.9260   22.0760 C   0  0  0  0  0  0  0  0  0  0  0  0
 18 17  1  0
 17 13  1  0
 13 12  2  0
 12 11  1  0
 11 10  1  0
 10  9  1  0
  9  2  1  0
  2  1  2  0
  3  2  1  0
  3  8  1  0
  8  7  1  0
  7  6  1  0
  6  5  1  0
  5  4  1  0
  4  3  1  0
 14 11  2  0
 15 14  1  0
 16 14  1  0
 17 16  2  0
M  END
$$$$
A71EV2A-x0812_A_147_1_A71EV2A-x0911+A+147+1__LIG
     RDKit          3D

 13 14  0  0  0  0  0  0  0  0999 V2000
    9.3410   14.9020   22.5290 O   0  0  0  0  0  0  0  0  0  0  0  0
    9.9230   13.8220   22.3490 C   0  0  0  0  0  0  0  0  0  0  0  0
   11.1510   13.7360   21.8510 N   0  0  0  0  0  0  0  0  0  0  0  0
    9.2560   12.5440   22.6920 C   0  0  0  0  0  0  0  0  0  0  0  0
    9.7020   11.3760   22.2270 N   0  0  0  0  0  0  0  0  0  0  0  0
    8.0920   12.3580   23.5140 C   0  0  0  0  0  0  0  0  0  0  0  0
    7.8670   10.9780   23.5000 C   0  0  0  0  0  0  0  0  0  0  0  0
    8.8430   10.4260   22.7260 N   0  0  0  0  0  0  0  0  0  0  0  0
    9.0480    9.0220   22.4080 C   0  0  0  0  0  0  0  0  0  0  0  0
    6.8200   10.4020   24.2070 C   0  0  0  0  0  0  0  0  0  0  0  0
    5.9870   11.2320   24.9450 C   0  0  0  0  0  0  0  0  0  0  0  0
    6.1920   12.6030   24.9660 C   0  0  0  0  0  0  0  0  0  0  0  0
    7.2410   13.1750   24.2560 C   0  0  0  0  0  0  0  0  0  0  0  0
  9  8  1  0
  8  5  1  0
  5  4  2  0
  4  2  1  0
  2  1  2  0
  3  2  1  0
  6  4  1  0
  6 13  2  0
 13 12  1  0
 12 11  2  0
 11 10  1  0
 10  7  2  0
  8  7  1  0
  7  6  1  0
M  END
$$$$
A71EV2A-x0836_A_301_1_A71EV2A-x0911+A+147+1__LIG
     RDKit          3D

 16 17  0  0  0  0  0  0  0  0999 V2000
    5.4350   13.3750   26.9030 N   0  0  0  0  0  0  0  0  0  0  0  0
    5.9190   12.0340   27.2140 C   0  0  2  0  0  0  0  0  0  0  0  0
    6.4980   11.9090   28.6140 C   0  0  0  0  0  0  0  0  0  0  0  0
    7.4600   12.8020   29.0630 C   0  0  0  0  0  0  0  0  0  0  0  0
    8.0280   12.6570   30.3180 C   0  0  0  0  0  0  0  0  0  0  0  0
    7.6440   11.6150   31.1370 C   0  0  0  0  0  0  0  0  0  0  0  0
    6.6880   10.7220   30.7030 C   0  0  0  0  0  0  0  0  0  0  0  0
    6.1170   10.8680   29.4510 C   0  0  0  0  0  0  0  0  0  0  0  0
    6.9290   11.5200   26.2010 C   0  0  0  0  0  0  0  0  0  0  0  0
    6.9880   10.1660   25.9120 C   0  0  0  0  0  0  0  0  0  0  0  0
    7.8720    9.6730   24.9710 C   0  0  0  0  0  0  0  0  0  0  0  0
    7.7940   12.3740   25.5290 C   0  0  0  0  0  0  0  0  0  0  0  0
    8.6900   11.8930   24.5900 C   0  0  0  0  0  0  0  0  0  0  0  0
    8.7300   10.5350   24.3120 C   0  0  0  0  0  0  0  0  0  0  0  0
    9.6390   10.0890   23.3860 O   0  0  0  0  0  0  0  0  0  0  0  0
    9.7970    8.6840   23.2110 C   0  0  0  0  0  0  0  0  0  0  0  0
 16 15  1  0
 15 14  1  0
 14 11  1  0
 11 10  2  0
 10  9  1  0
 12  9  2  0
 13 12  1  0
 14 13  2  0
  9  2  1  0
  2  1  1  6
  3  2  1  0
  3  8  2  0
  8  7  1  0
  7  6  2  0
  6  5  1  0
  5  4  2  0
  4  3  1  0
M  END
$$$$
A71EV2A-x0836_A_302_1_A71EV2A-x0911+A+147+1__LIG
     RDKit          3D

 16 17  0  0  0  0  0  0  0  0999 V2000
    0.8100   15.2180   19.1410 N   0  0  0  0  0  0  0  0  0  0  0  0
    0.3990   13.8240   18.9360 C   0  0  2  0  0  0  0  0  0  0  0  0
    1.5610   12.8490   19.0450 C   0  0  0  0  0  0  0  0  0  0  0  0
    2.6300   12.9050   18.1640 C   0  0  0  0  0  0  0  0  0  0  0  0
    3.6950   12.0290   18.2900 C   0  0  0  0  0  0  0  0  0  0  0  0
    3.7040   11.0870   19.2920 C   0  0  0  0  0  0  0  0  0  0  0  0
    2.6520   11.0200   20.1730 C   0  0  0  0  0  0  0  0  0  0  0  0
    1.5850   11.8940   20.0510 C   0  0  0  0  0  0  0  0  0  0  0  0
   -0.4310   13.6700   17.6690 C   0  0  0  0  0  0  0  0  0  0  0  0
   -0.7990   12.4250   17.1820 C   0  0  0  0  0  0  0  0  0  0  0  0
   -1.5630   12.3040   16.0360 C   0  0  0  0  0  0  0  0  0  0  0  0
   -0.8470   14.7950   16.9760 C   0  0  0  0  0  0  0  0  0  0  0  0
   -1.6120   14.6880   15.8300 C   0  0  0  0  0  0  0  0  0  0  0  0
   -1.9690   13.4410   15.3590 C   0  0  0  0  0  0  0  0  0  0  0  0
   -2.7160   13.4240   14.2100 O   0  0  0  0  0  0  0  0  0  0  0  0
   -4.1340   13.4180   14.3370 C   0  0  0  0  0  0  0  0  0  0  0  0
 16 15  1  0
 15 14  1  0
 14 11  1  0
 11 10  2  0
 10  9  1  0
 12  9  2  0
 13 12  1  0
 14 13  2  0
  9  2  1  0
  2  1  1  6
  3  2  1  0
  3  8  2  0
  8  7  1  0
  7  6  2  0
  6  5  1  0
  5  4  2  0
  4  3  1  0
M  END
$$$$
A71EV2A-x0875_A_201_1_A71EV2A-x0911+A+147+1__LIG
     RDKit          3D

 14 14  0  0  0  0  0  0  0  0999 V2000
   15.7330   11.2830   24.2190 O   0  0  0  0  0  0  0  0  0  0  0  0
   14.6890   10.7970   24.5110 C   0  0  0  0  0  0  0  0  0  0  0  0
   14.5440    9.7150   25.2270 O   0  0  0  0  0  0  0  0  0  0  0  0
   13.4360   11.5130   24.1140 C   0  0  0  0  0  0  0  0  0  0  0  0
   13.3530   12.7700   24.9610 C   0  0  0  0  0  0  0  0  0  0  0  0
   12.0220   12.8720   25.6460 C   0  0  0  0  0  0  0  0  0  0  0  0
   12.1580   10.6980   24.2330 C   0  0  0  0  0  0  0  0  0  0  0  0
   11.0340   11.6150   23.7820 C   0  0  0  0  0  0  0  0  0  0  0  0
   11.0010   12.8510   24.5900 N   0  0  0  0  0  0  0  0  0  0  0  0
    9.6630   13.7250   24.8690 S   0  0  0  0  0  0  0  0  0  0  0  0
    9.6320   14.7570   23.8780 O   0  0  0  0  0  0  0  0  0  0  0  0
    9.6970   14.0980   26.2470 O   0  0  0  0  0  0  0  0  0  0  0  0
    8.2690   12.6440   24.5630 C   0  0  0  0  0  0  0  0  0  0  0  0
    8.2400   11.4310   25.4260 C   0  0  0  0  0  0  0  0  0  0  0  0
 14 13  1  0
 13 10  1  0
 11 10  2  0
 12 10  2  0
 10  9  1  0
  9  6  1  0
  6  5  1  0
  5  4  1  0
  7  4  1  0
  8  7  1  0
  9  8  1  0
  4  2  1  0
  2  1  2  0
  3  2  1  0
M  END
$$$$
A71EV2A-x0884_A_147_1_A71EV2A-x0911+A+147+1__LIG
     RDKit          3D

 14 14  0  0  0  0  0  0  0  0999 V2000
   12.3890   14.1920   22.3820 O   0  0  0  0  0  0  0  0  0  0  0  0
   11.5640   13.6870   23.1630 C   0  0  0  0  0  0  0  0  0  0  0  0
   11.4810   14.0480   24.4380 N   0  0  0  0  0  0  0  0  0  0  0  0
   10.7240   12.6720   22.7770 N   0  0  0  0  0  0  0  0  0  0  0  0
    9.7260   11.9940   23.5260 C   0  0  0  0  0  0  0  0  0  0  0  0
    9.6180   10.6190   23.3720 C   0  0  0  0  0  0  0  0  0  0  0  0
    8.6080    9.9300   24.0230 C   0  0  0  0  0  0  0  0  0  0  0  0
    7.7080   10.6000   24.8380 C   0  0  0  0  0  0  0  0  0  0  0  0
    8.8310   12.6670   24.3580 C   0  0  0  0  0  0  0  0  0  0  0  0
    7.8330   11.9700   25.0300 C   0  0  0  0  0  0  0  0  0  0  0  0
    7.0280   12.7300   25.9270 N   0  0  0  0  0  0  0  0  0  0  0  0
    5.9550   12.3550   26.6750 C   0  0  0  0  0  0  0  0  0  0  0  0
    4.9720   13.0750   26.8320 O   0  0  0  0  0  0  0  0  0  0  0  0
    6.0720   11.0230   27.3600 C   0  0  0  0  0  0  0  0  0  0  0  0
 14 12  1  0
 13 12  2  0
 12 11  1  0
 11 10  1  0
 10  8  1  0
  8  7  2  0
  7  6  1  0
  6  5  2  0
  5  4  1  0
  4  2  1  0
  2  1  2  0
  3  2  1  0
  9  5  1  0
 10  9  2  0
M  END
$$$$
A71EV2A-x0911_A_147_1_A71EV2A-x0911+A+147+1__LIG
     RDKit          3D

 15 16  0  0  0  0  0  0  0  0999 V2000
   -1.0810   14.9630   19.5170 O   0  0  0  0  0  0  0  0  0  0  0  0
   -0.3860   14.0760   19.0580 C   0  0  0  0  0  0  0  0  0  0  0  0
   -0.3360   13.8240   17.5650 C   0  0  2  0  0  0  0  0  0  0  0  0
   -1.1140   14.8470   16.7710 C   0  0  0  0  0  0  0  0  0  0  0  0
   -1.3840   14.2350   15.4500 N   0  0  0  0  0  0  0  0  0  0  0  0
   -1.3980   12.7610   15.6350 C   0  0  0  0  0  0  0  0  0  0  0  0
   -1.0200   12.5150   17.1400 C   0  0  0  0  0  0  0  0  0  0  0  0
    0.3510   13.2890   19.8800 N   0  0  0  0  0  0  0  0  0  0  0  0
   -0.0420   13.1670   21.2780 C   0  0  0  0  0  0  0  0  0  0  0  0
    1.5170   12.5430   19.4980 C   0  0  0  0  0  0  0  0  0  0  0  0
    2.4470   13.0930   18.6250 C   0  0  0  0  0  0  0  0  0  0  0  0
    3.5950   12.3850   18.3150 C   0  0  0  0  0  0  0  0  0  0  0  0
    3.8220   11.1450   18.8700 C   0  0  0  0  0  0  0  0  0  0  0  0
    2.9040   10.6020   19.7380 C   0  0  0  0  0  0  0  0  0  0  0  0
    1.7470   11.2920   20.0540 C   0  0  0  0  0  0  0  0  0  0  0  0
  9  8  1  0
  8  2  1  0
  2  1  2  0
  3  2  1  1
  3  7  1  0
  7  6  1  0
  6  5  1  0
  5  4  1  0
  4  3  1  0
 10  8  1  0
 10 15  2  0
 15 14  1  0
 14 13  2  0
 13 12  1  0
 12 11  2  0
 11 10  1  0
M  END
$$$$
A71EV2A-x0926_A_250_1_A71EV2A-x0911+A+147+1__LIG
     RDKit          3D

 14 14  0  0  0  0  0  0  0  0999 V2000
   10.0640   16.3360   19.2900 O   0  0  0  0  0  0  0  0  0  0  0  0
   10.3900   15.1620   19.4820 C   0  0  0  0  0  0  0  0  0  0  0  0
   10.7000   14.3370   18.4960 N   0  0  0  0  0  0  0  0  0  0  0  0
   10.4110   14.5710   20.8800 C   0  0  1  0  0  0  0  0  0  0  0  0
   11.5450   15.1600   21.7290 C   0  0  0  0  0  0  0  0  0  0  0  0
   11.5420   14.5340   23.1180 C   0  0  0  0  0  0  0  0  0  0  0  0
   10.2020   14.7550   23.7610 C   0  0  0  0  0  0  0  0  0  0  0  0
    9.0850   14.8020   21.6010 C   0  0  0  0  0  0  0  0  0  0  0  0
    9.1500   14.1740   22.9210 N   0  0  0  0  0  0  0  0  0  0  0  0
    8.3720   13.1480   23.3150 C   0  0  0  0  0  0  0  0  0  0  0  0
    7.3820   12.8080   22.6840 O   0  0  0  0  0  0  0  0  0  0  0  0
    8.8200   12.4150   24.5710 C   0  0  0  0  0  0  0  0  0  0  0  0
    7.9990   11.3170   24.9520 O   0  0  0  0  0  0  0  0  0  0  0  0
    6.7420   11.7110   25.4970 C   0  0  0  0  0  0  0  0  0  0  0  0
 14 13  1  0
 13 12  1  0
 12 10  1  0
 11 10  2  0
 10  9  1  0
  9  7  1  0
  7  6  1  0
  6  5  1  0
  5  4  1  0
  8  4  1  0
  9  8  1  0
  4  2  1  6
  2  1  2  0
  3  2  1  0
M  END
$$$$
A71EV2A-x1019_A_147_1_A71EV2A-x0911+A+147+1__LIG
     RDKit          3D

 13 13  0  0  0  0  0  0  0  0999 V2000
   12.9780   12.2980   26.2310 O   0  0  0  0  0  0  0  0  0  0  0  0
   12.9870   12.1770   25.0250 C   0  0  0  0  0  0  0  0  0  0  0  0
   13.9330   11.5650   24.3720 O   0  0  0  0  0  0  0  0  0  0  0  0
   11.8960   12.7270   24.1450 C   0  0  0  0  0  0  0  0  0  0  0  0
   10.5210   12.5070   24.7330 C   0  0  0  0  0  0  0  0  0  0  0  0
    9.9170   11.2470   24.6930 C   0  0  0  0  0  0  0  0  0  0  0  0
   10.6770   10.2510   24.1470 O   0  0  0  0  0  0  0  0  0  0  0  0
   10.0030    9.2330   23.4110 C   0  0  0  0  0  0  0  0  0  0  0  0
    8.6470   11.0520   25.2030 C   0  0  0  0  0  0  0  0  0  0  0  0
    9.8150   13.5590   25.3130 C   0  0  0  0  0  0  0  0  0  0  0  0
    8.5400   13.3770   25.8110 C   0  0  0  0  0  0  0  0  0  0  0  0
    7.9760   12.1280   25.7430 C   0  0  0  0  0  0  0  0  0  0  0  0
    6.2150   11.8710   26.3870 Br  0  0  0  0  0  0  0  0  0  0  0  0
 13 12  1  0
 12  9  2  0
  9  6  1  0
  7  6  1  0
  8  7  1  0
  6  5  2  0
  5  4  1  0
  4  2  1  0
  3  2  1  0
  2  1  2  0
 10  5  1  0
 11 10  2  0
 12 11  1  0
M  END
$$$$
A71EV2A-x1080_A_201_1_A71EV2A-x0911+A+147+1__LIG
     RDKit          3D

  6  5  0  0  0  0  0  0  0  0999 V2000
    5.3510   14.2090   24.2170 O   0  0  0  0  0  0  0  0  0  0  0  0
    5.7890   14.6830   23.1750 C   0  0  0  0  0  0  0  0  0  0  0  0
    5.6220   15.9450   22.8390 N   0  0  0  0  0  0  0  0  0  0  0  0
    6.7210   16.7060   22.4470 O   0  0  0  0  0  0  0  0  0  0  0  0
    6.5730   13.8610   22.1880 C   0  0  0  0  0  0  0  0  0  0  0  0
    7.9260   13.4480   22.7150 C   0  0  0  0  0  0  0  0  0  0  0  0
  6  5  1  0
  5  2  1  0
  2  1  2  0
  3  2  1  0
  4  3  1  0
M  END
$$$$
A71EV2A-x1140_A_147_1_A71EV2A-x0911+A+147+1_ALIG
     RDKit          3D

 15 16  0  0  0  0  0  0  0  0999 V2000
   13.0970    9.6510   24.7100 O   0  0  0  0  0  0  0  0  0  0  0  0
   12.6740   10.7620   24.4830 C   0  0  0  0  0  0  0  0  0  0  0  0
   11.1810   11.0070   24.4930 C   0  0  0  0  0  0  0  0  0  0  0  0
   10.3330    9.9090   24.3250 C   0  0  0  0  0  0  0  0  0  0  0  0
    8.9580   10.0560   24.4220 C   0  0  0  0  0  0  0  0  0  0  0  0
    8.4030   11.2950   24.6420 C   0  0  0  0  0  0  0  0  0  0  0  0
    9.2190   12.4040   24.7920 C   0  0  0  0  0  0  0  0  0  0  0  0
   10.5930   12.2440   24.7420 C   0  0  0  0  0  0  0  0  0  0  0  0
   11.5700   13.6050   25.1100 Cl  0  0  0  0  0  0  0  0  0  0  0  0
   13.6670   11.8880   24.2040 C   0  0  0  0  0  0  0  0  0  0  0  0
   14.7360   12.1490   25.1900 N   0  0  0  0  0  0  0  0  0  0  0  0
   14.2450   12.4950   26.5300 C   0  0  0  0  0  0  0  0  0  0  0  0
   15.4900   12.4370   27.3880 C   0  0  0  0  0  0  0  0  0  0  0  0
   16.3130   11.3300   26.7530 C   0  0  0  0  0  0  0  0  0  0  0  0
   15.6230   11.0000   25.4290 C   0  0  0  0  0  0  0  0  0  0  0  0
  9  8  1  0
  8  7  1  0
  7  6  2  0
  6  5  1  0
  5  4  2  0
  4  3  1  0
  8  3  2  0
  3  2  1  0
  2  1  2  0
 10  2  1  0
 11 10  1  0
 11 15  1  0
 15 14  1  0
 14 13  1  0
 13 12  1  0
 12 11  1  0
M  END
$$$$
A71EV2A-x1140_A_147_1_A71EV2A-x0911+A+147+1_BLIG
     RDKit          3D

 15 16  0  0  0  0  0  0  0  0999 V2000
   12.8760   10.2500   24.4120 O   0  0  0  0  0  0  0  0  0  0  0  0
   12.2800   11.3030   24.2760 C   0  0  0  0  0  0  0  0  0  0  0  0
   10.7930   11.3650   24.4110 C   0  0  0  0  0  0  0  0  0  0  0  0
   10.2160   12.5440   24.9060 C   0  0  0  0  0  0  0  0  0  0  0  0
    8.8550   12.6130   25.1450 C   0  0  0  0  0  0  0  0  0  0  0  0
    8.0540   11.5100   24.9410 C   0  0  0  0  0  0  0  0  0  0  0  0
    8.5990   10.3350   24.4540 C   0  0  0  0  0  0  0  0  0  0  0  0
    9.9480   10.2870   24.1440 C   0  0  0  0  0  0  0  0  0  0  0  0
   10.4930    8.9420   23.1970 Cl  0  0  0  0  0  0  0  0  0  0  0  0
   13.0530   12.5900   24.0190 C   0  0  0  0  0  0  0  0  0  0  0  0
   14.2650   12.7420   24.8390 N   0  0  0  0  0  0  0  0  0  0  0  0
   14.0280   12.5560   26.2790 C   0  0  0  0  0  0  0  0  0  0  0  0
   15.3570   12.0890   26.8060 C   0  0  0  0  0  0  0  0  0  0  0  0
   15.7460   11.1630   25.8500 C   0  0  0  0  0  0  0  0  0  0  0  0
   15.3270   11.7760   24.5060 C   0  0  0  0  0  0  0  0  0  0  0  0
  9  8  1  0
  8  7  1  0
  7  6  2  0
  6  5  1  0
  5  4  2  0
  4  3  1  0
  8  3  2  0
  3  2  1  0
  2  1  2  0
 10  2  1  0
 11 10  1  0
 11 15  1  0
 15 14  1  0
 14 13  1  0
 13 12  1  0
 12 11  1  0
M  END
$$$$
A71EV2A-x1148_A_201_1_A71EV2A-x0911+A+147+1__LIG
     RDKit          3D

  6  6  0  0  0  0  0  0  0  0999 V2000
    9.6130    9.3660   23.4090 Br  0  0  0  0  0  0  0  0  0  0  0  0
    8.7260   10.6250   24.4780 C   0  0  0  0  0  0  0  0  0  0  0  0
    9.0880   11.9380   24.5730 N   0  0  0  0  0  0  0  0  0  0  0  0
    8.2320   12.4890   25.4220 C   0  0  0  0  0  0  0  0  0  0  0  0
    7.3390   11.6010   25.8790 N   0  0  0  0  0  0  0  0  0  0  0  0
    7.6260   10.4010   25.2960 C   0  0  0  0  0  0  0  0  0  0  0  0
  2  1  1  0
  2  6  2  0
  6  5  1  0
  5  4  1  0
  4  3  2  0
  3  2  1  0
M  END
$$$$
A71EV2A-x1169_A_151_1_A71EV2A-x0911+A+147+1__LIG
     RDKit          3D

  7  7  0  0  0  0  0  0  0  0999 V2000
    9.7630    9.2630   23.4540 N   0  0  0  0  0  0  0  0  0  0  0  0
    9.0380    9.7430   24.1420 C   0  0  0  0  0  0  0  0  0  0  0  0
    8.0470   10.2950   25.0180 C   0  0  0  0  0  0  0  0  0  0  0  0
    6.9030    9.6210   25.3390 N   0  0  0  0  0  0  0  0  0  0  0  0
    6.2660   10.4360   26.0990 C   0  0  0  0  0  0  0  0  0  0  0  0
    6.8810   11.6180   26.3220 O   0  0  0  0  0  0  0  0  0  0  0  0
    8.0380   11.4940   25.6160 C   0  0  0  0  0  0  0  0  0  0  0  0
  2  1  3  0
  3  2  1  0
  3  7  2  0
  7  6  1  0
  6  5  1  0
  5  4  2  0
  4  3  1  0
M  END
$$$$
A71EV2A-x1180_A_151_1_A71EV2A-x0911+A+147+1__LIG
     RDKit          3D

  6  6  0  0  0  0  0  0  0  0999 V2000
    2.4900   12.9810   17.9860 Cl  0  0  0  0  0  0  0  0  0  0  0  0
    2.9960   11.8140   19.1680 C   0  0  0  0  0  0  0  0  0  0  0  0
    4.0950   11.0150   19.0450 N   0  0  0  0  0  0  0  0  0  0  0  0
    4.0960   10.2160   20.1000 C   0  0  0  0  0  0  0  0  0  0  0  0
    3.0570   10.4570   20.9170 N   0  0  0  0  0  0  0  0  0  0  0  0
    2.3330   11.4810   20.3720 C   0  0  0  0  0  0  0  0  0  0  0  0
  2  1  1  0
  2  6  2  0
  6  5  1  0
  5  4  1  0
  4  3  2  0
  3  2  1  0
M  END
$$$$
A71EV2A-x1180_B_151_1_A71EV2A-x0911+A+147+1__LIG
     RDKit          3D

  6  6  0  0  0  0  0  0  0  0999 V2000
    9.5440    9.3680   23.3020 Cl  0  0  0  0  0  0  0  0  0  0  0  0
    8.4680   10.2380   24.3420 C   0  0  0  0  0  0  0  0  0  0  0  0
    7.4100    9.6710   24.9790 N   0  0  0  0  0  0  0  0  0  0  0  0
    6.8400   10.6410   25.6780 C   0  0  0  0  0  0  0  0  0  0  0  0
    7.4720   11.8100   25.5230 N   0  0  0  0  0  0  0  0  0  0  0  0
    8.5210   11.5960   24.6720 C   0  0  0  0  0  0  0  0  0  0  0  0
  2  1  1  0
  2  6  2  0
  6  5  1  0
  5  4  1  0
  4  3  2  0
  3  2  1  0
M  END
$$$$
A71EV2A-x1209_A_151_1_A71EV2A-x0911+A+147+1__LIG
     RDKit          3D

  6  6  0  0  0  0  0  0  0  0999 V2000
    9.5600    9.2170   23.2780 Br  0  0  0  0  0  0  0  0  0  0  0  0
    8.3850    9.9550   24.5230 C   0  0  0  0  0  0  0  0  0  0  0  0
    7.2530    9.2930   24.9640 N   0  0  0  0  0  0  0  0  0  0  0  0
    6.6230   10.1170   25.8540 C   0  0  0  0  0  0  0  0  0  0  0  0
    7.3760   11.2230   25.9330 C   0  0  0  0  0  0  0  0  0  0  0  0
    8.4570   11.1180   25.1000 N   0  0  0  0  0  0  0  0  0  0  0  0
  2  1  1  0
  2  6  2  0
  6  5  1  0
  5  4  2  0
  4  3  1  0
  3  2  1  0
M  END
$$$$
A71EV2A-x1255_B_201_1_A71EV2A-x0911+A+147+1__LIG
     RDKit          3D

 12 12  0  0  0  0  0  0  0  0999 V2000
    9.7310    9.4020   23.5360 Br  0  0  0  0  0  0  0  0  0  0  0  0
    8.5500   10.4250   24.5940 C   0  0  0  0  0  0  0  0  0  0  0  0
    8.6660   11.7750   24.6250 C   0  0  0  0  0  0  0  0  0  0  0  0
    7.7800   12.5680   25.4310 C   0  0  0  0  0  0  0  0  0  0  0  0
    7.8120   13.7960   25.5120 O   0  0  0  0  0  0  0  0  0  0  0  0
    7.5560    9.7420   25.3380 C   0  0  0  0  0  0  0  0  0  0  0  0
    6.7280   10.4870   26.0920 C   0  0  0  0  0  0  0  0  0  0  0  0
    6.8230   11.8520   26.1570 N   0  0  0  0  0  0  0  0  0  0  0  0
    5.9180   12.5980   27.0490 C   0  0  0  0  0  0  0  0  0  0  0  0
    6.5690   12.9320   28.3730 C   0  0  0  0  0  0  0  0  0  0  0  0
    5.9060   12.2460   29.4260 O   0  0  0  0  0  0  0  0  0  0  0  0
    6.0010   10.8240   29.3870 C   0  0  0  0  0  0  0  0  0  0  0  0
  5  4  2  0
  4  8  1  0
  9  8  1  0
 10  9  1  0
 11 10  1  0
 12 11  1  0
  8  7  1  0
  7  6  2  0
  6  2  1  0
  2  1  1  0
  3  2  2  0
  4  3  1  0
M  END
$$$$
A71EV2A-x1292_A_151_1_A71EV2A-x0911+A+147+1__LIG
     RDKit          3D

 13 14  0  0  0  0  0  0  0  0999 V2000
    5.9780   10.7830   26.9290 O   0  0  0  0  0  0  0  0  0  0  0  0
    6.4670   11.7110   26.2880 C   0  0  0  0  0  0  0  0  0  0  0  0
    6.0270   12.9740   26.4190 N   0  0  0  0  0  0  0  0  0  0  0  0
    5.0290   13.3490   27.4210 C   0  0  0  0  0  0  0  0  0  0  0  0
    4.8460   14.7860   27.7410 C   0  0  0  0  0  0  0  0  0  0  0  0
    5.5000   13.8800   28.7240 C   0  0  0  0  0  0  0  0  0  0  0  0
    7.5740   11.4560   25.3030 C   0  0  0  0  0  0  0  0  0  0  0  0
    7.7770   10.1590   24.7870 C   0  0  0  0  0  0  0  0  0  0  0  0
    6.9760    9.1240   25.1380 O   0  0  0  0  0  0  0  0  0  0  0  0
    8.4060   12.4860   24.8560 C   0  0  0  0  0  0  0  0  0  0  0  0
    9.3870   12.2430   23.9100 C   0  0  0  0  0  0  0  0  0  0  0  0
    9.5830   10.9730   23.4170 C   0  0  0  0  0  0  0  0  0  0  0  0
    8.7930    9.9270   23.8580 C   0  0  0  0  0  0  0  0  0  0  0  0
  9  8  1  0
  8 13  2  0
 13 12  1  0
 12 11  2  0
 11 10  1  0
 10  7  2  0
  8  7  1  0
  7  2  1  0
  2  1  2  0
  3  2  1  0
  4  3  1  0
  4  6  1  0
  6  5  1  0
  5  4  1  0
M  END
$$$$
A71EV2A-x7589_A_201_7_A71EV2A-x0911+A+147+1__LIG
     RDKit          3D

 30 32  0  0  0  0  0  0  0  0999 V2000
    0.9560   14.7790   23.1660 C   0  0  0  0  0  0  0  0  0  0  0  0
    2.1940   14.2050   23.6530 O   0  0  0  0  0  0  0  0  0  0  0  0
    2.7490   14.8220   24.7040 C   0  0  0  0  0  0  0  0  0  0  0  0
    2.3570   15.8620   25.1840 O   0  0  0  0  0  0  0  0  0  0  0  0
    3.8500   14.1730   25.1000 N   0  0  0  0  0  0  0  0  0  0  0  0
    4.4420   14.4170   26.4160 C   0  0  2  0  0  0  0  0  0  0  0  0
    5.6520   15.2800   26.2850 C   0  0  0  0  0  0  0  0  0  0  0  0
    6.6720   14.3010   25.7170 C   0  0  0  0  0  0  0  0  0  0  0  0
    6.2490   12.9800   26.2160 N   0  0  0  0  0  0  0  0  0  0  0  0
    6.8700   11.7410   25.8840 C   0  0  0  0  0  0  0  0  0  0  0  0
    6.2400   10.6270   26.2800 N   0  0  0  0  0  0  0  0  0  0  0  0
    6.7050    9.4920   25.7550 C   0  0  0  0  0  0  0  0  0  0  0  0
    7.7230    9.3150   24.9150 N   0  0  0  0  0  0  0  0  0  0  0  0
    8.3480   10.4310   24.5370 C   0  0  0  0  0  0  0  0  0  0  0  0
    9.6820   10.3400   23.3960 S   0  0  0  0  0  0  0  0  0  0  0  0
    9.8400    8.5760   23.1240 C   0  0  0  0  0  0  0  0  0  0  0  0
    7.9840   11.7050   25.0030 C   0  0  0  0  0  0  0  0  0  0  0  0
    8.8180   12.9270   24.7060 C   0  0  0  0  0  0  0  0  0  0  0  0
    8.6640   13.4770   23.2980 C   0  0  0  0  0  0  0  0  0  0  0  0
    7.7880   13.0700   22.5350 O   0  0  0  0  0  0  0  0  0  0  0  0
    9.5560   14.4160   22.9250 N   0  0  0  0  0  0  0  0  0  0  0  0
   10.6340   14.9710   23.7720 C   0  0  0  0  0  0  0  0  0  0  0  0
   11.9910   14.8700   23.0870 C   0  0  0  0  0  0  0  0  0  0  0  0
   11.9230   15.5070   21.6990 C   0  0  0  0  0  0  0  0  0  0  0  0
   10.7970   14.8570   20.8800 C   0  0  2  0  0  0  0  0  0  0  0  0
   10.7100   15.4280   19.4760 C   0  0  0  0  0  0  0  0  0  0  0  0
   11.1040   14.6220   18.5030 N   0  0  0  0  0  0  0  0  0  0  0  0
   10.2720   16.5630   19.2770 O   0  0  0  0  0  0  0  0  0  0  0  0
    9.4580   15.0120   21.5930 C   0  0  0  0  0  0  0  0  0  0  0  0
    5.0230   13.1380   26.9990 C   0  0  0  0  0  0  0  0  0  0  0  0
  1  2  1  0
  2  3  1  0
  3  4  2  0
  3  5  1  0
  6  5  1  6
  6  7  1  0
  7  8  1  0
  8  9  1  0
  9 10  1  0
 10 11  2  0
 11 12  1  0
 12 13  2  0
 13 14  1  0
 14 15  1  0
 15 16  1  0
 14 17  2  0
 17 18  1  0
 18 19  1  0
 19 20  2  0
 19 21  1  0
 21 22  1  0
 22 23  1  0
 23 24  1  0
 24 25  1  0
 25 26  1  6
 26 27  1  0
 26 28  2  0
 25 29  1  0
  9 30  1  0
 30  6  1  0
 17 10  1  0
 29 21  1  0
M  END
$$$$
A71EV2A-x7589_A_201_8_A71EV2A-x0911+A+147+1__LIG
     RDKit          3D

 30 32  0  0  0  0  0  0  0  0999 V2000
    0.8700   14.6390   23.3710 C   0  0  0  0  0  0  0  0  0  0  0  0
    2.1990   14.1660   23.7000 O   0  0  0  0  0  0  0  0  0  0  0  0
    2.8540   14.8690   24.6320 C   0  0  0  0  0  0  0  0  0  0  0  0
    2.4200   15.8550   25.1880 O   0  0  0  0  0  0  0  0  0  0  0  0
    4.0730   14.3490   24.8390 N   0  0  0  0  0  0  0  0  0  0  0  0
    5.0080   14.9190   25.8090 C   0  0  1  0  0  0  0  0  0  0  0  0
    4.6710   14.4890   27.2350 C   0  0  0  0  0  0  0  0  0  0  0  0
    5.1550   13.0380   27.2860 C   0  0  0  0  0  0  0  0  0  0  0  0
    6.1940   12.9560   26.2430 N   0  0  0  0  0  0  0  0  0  0  0  0
    6.8390   11.7310   25.8810 C   0  0  0  0  0  0  0  0  0  0  0  0
    6.2200   10.6070   26.2680 N   0  0  0  0  0  0  0  0  0  0  0  0
    6.6960    9.4760   25.7450 C   0  0  0  0  0  0  0  0  0  0  0  0
    7.7180    9.3070   24.9110 N   0  0  0  0  0  0  0  0  0  0  0  0
    8.3380   10.4290   24.5370 C   0  0  0  0  0  0  0  0  0  0  0  0
    9.6730   10.3410   23.3970 S   0  0  0  0  0  0  0  0  0  0  0  0
    9.8380    8.5770   23.1310 C   0  0  0  0  0  0  0  0  0  0  0  0
    7.9610   11.7030   25.0000 C   0  0  0  0  0  0  0  0  0  0  0  0
    8.7920   12.9300   24.7120 C   0  0  0  0  0  0  0  0  0  0  0  0
    8.6590   13.4700   23.2980 C   0  0  0  0  0  0  0  0  0  0  0  0
    7.7890   13.0620   22.5270 O   0  0  0  0  0  0  0  0  0  0  0  0
    9.5570   14.4040   22.9290 N   0  0  0  0  0  0  0  0  0  0  0  0
   10.6360   14.9520   23.7800 C   0  0  0  0  0  0  0  0  0  0  0  0
   11.9920   14.8590   23.0920 C   0  0  0  0  0  0  0  0  0  0  0  0
   11.9240   15.5030   21.7080 C   0  0  0  0  0  0  0  0  0  0  0  0
   10.7930   14.8600   20.8890 C   0  0  2  0  0  0  0  0  0  0  0  0
   10.7070   15.4290   19.4840 C   0  0  0  0  0  0  0  0  0  0  0  0
   11.0900   14.6180   18.5130 N   0  0  0  0  0  0  0  0  0  0  0  0
   10.2730   16.5660   19.2840 O   0  0  0  0  0  0  0  0  0  0  0  0
    9.4560   15.0130   21.6040 C   0  0  0  0  0  0  0  0  0  0  0  0
    6.3550   14.2620   25.5900 C   0  0  0  0  0  0  0  0  0  0  0  0
  1  2  1  0
  2  3  1  0
  3  4  2  0
  3  5  1  0
  6  5  1  6
  6  7  1  0
  7  8  1  0
  8  9  1  0
  9 10  1  0
 10 11  2  0
 11 12  1  0
 12 13  2  0
 13 14  1  0
 14 15  1  0
 15 16  1  0
 14 17  2  0
 17 18  1  0
 18 19  1  0
 19 20  2  0
 19 21  1  0
 21 22  1  0
 22 23  1  0
 23 24  1  0
 24 25  1  0
 25 26  1  6
 26 27  1  0
 26 28  2  0
 25 29  1  0
  9 30  1  0
 30  6  1  0
 17 10  1  0
 29 21  1  0
M  END
$$$$
